/*--------------------------------*- C++ -*----------------------------------*\
  =========                 |
  \\      /  F ield         | OpenFOAM: The Open Source CFD Toolbox
   \\    /   O peration     | Website:  https://openfoam.org
    \\  /    A nd           | Version:  dev
     \\/     M anipulation  |
\*---------------------------------------------------------------------------*/
FoamFile
{
    version     2.0;
    format      ascii;
    class       dictionary;
    location    "constant";
    object      phaseProperties;
}
// * * * * * * * * * * * * * * * * * * * * * * * * * * * * * * * * * * * * * //

phases (particles air);

continuousPhase air;

particles
{
    type          purePhaseModel;
    diameterModel constant;
    constantCoeffs
    {
        d               1e-5;
    }

    alphaMax        0.62;
    residualAlpha   1e-6;
}

air
{
    type          purePhaseModel;
    diameterModel constant;
    constantCoeffs
    {
        d               1;
    }

    residualAlpha   0;
}

blending
{
    default
    {
        type            continuous;
        phase air;
    }
}

surfaceTension
{
    air_particles
    {
        type            constant;
        sigma           0;
    }
};

// ************************************************************************* //
