/*--------------------------------*- C++ -*----------------------------------*\
  =========                 |
  \\      /  F ield         | OpenFOAM: The Open Source CFD Toolbox
   \\    /   O peration     | Website:  https://openfoam.org
    \\  /    A nd           | Version:  any
     \\/     M anipulation  |
\*---------------------------------------------------------------------------*/
FoamFile {
    format ascii;
    class dictionary;
    object blockMeshDict;
}
// * * * * * * * * * * * * * * * * * * * * * * * * * * * * * * * * * * * * * //

convertToMeters 1.0;

// Parameters to insert

// Crater paramters
r_crater_top 10.0; // Radius of crater top in meters
r_crater_base 10.0; // Radius of conduit in meters
h_crater 100.0; // Length of crater in meters
dx_crater_base 0.0;
dy_crater_base 0.0;

// Conduit parameters
h_conduit 0.0; //Lenght of conduit in meters (0-> no conduit)
r_conduit_base 10.0; // Radius of the conduit base in meters
dx_conduit_base 0.0;
dy_conduit_base 0.0;

// Atmospheric domain parameters
atm_top_z 2500.0; //Vertical extension of the atmospheric domain in meters
atm_x_pos 1500.0; //Horizontal extension of the right part of atmospheric domain in meters
atm_y_pos 1500.0; //Horizontal extension of the front part of atmospheric domain in meters
atm_y_neg -1500.0; //Horizontal extension of the back part of atmospheric domain in meters
atm_x_neg -1500.0; //Horizontal extension of the left part of atmospheric domain in meters

n_vert_layers 3; // number of layers in the atmosphere

hor_cell_size_top_atm 40.0; // horizontal cell size at the top of the atmopshere block

dz_to_dxy_crater_ratio 2.0; // aspect-ratio of cells at the top of the crater/base of atmosphere
dz_to_dxy_atm_ratio 2.0; // aspect-ratio of cells at the top of the bottom layer

// cyl_radial_expansion 0.05;

// Fixed parameters
crater_top_z 0.0; //position of the crater top
degAngle 45.0;
degAngleHalf 22.5;
coeff 1.1; // Parameter for the shape of the octagon

#codeStream {

    codeInclude
    #{
        #include "scalarList.H"
    #};

    code #{
    
        const Foam::scalarList layer_fraction = {0.0, 0.025, 0.1, 1.0};

        const Foam::scalarList atmCells_aspect_ratio_bottom = {1.0, 1.0};
        const Foam::scalarList atmCells_aspect_ratio_top = {2.0, 1.0};

        const Foam::labelList innerMesh_refinementLevel = {0, 0, 0};
        const Foam::scalarList cyl_radial_expansion = {0.05, 0.05, 0.04, 0.02};




        // --- Helper Function for Geometric Grading Calculation (using auto/lambda) ---
        auto calculateGradingCells = [&]( // Usa [&] per catturare per riferimento, o [] se non serve accesso a variabili esterne
            scalar totalLength,
            scalar cellSizeStart,
            scalar cellSizeEnd,
            label& nCells,
            scalar& grading,
            label maxIter = 50,     // Puoi ancora usare valori di default
            scalar tolerance = 1e-4
        ) -> void // Specifica il tipo di ritorno (opzionale ma buona pratica per chiarezza)
        {
            // --- Inizio del corpo della funzione (lambda) ---
            nCells = 0;
            grading = 1.0;

            if (totalLength < 1e-9) {
                return;
            }
            if (cellSizeStart < 1e-9 || cellSizeEnd < 1e-9) {
                Info << "Warning in calculateGradingCells: cellSizeStart or cellSizeEnd is near zero. "
                     << "Falling back to single cell." << endl;
                nCells = 1;
                grading = 1.0;
                return;
            }
            if (Foam::mag(cellSizeEnd - cellSizeStart) < 1e-9 * cellSizeStart) {
                nCells = Foam::max(1, label(round(totalLength / cellSizeStart)));
                grading = 1.0;
                return;
            }

            scalar r = cellSizeEnd / cellSizeStart;
            scalar K = totalLength / cellSizeStart;

            if (r <= 1.0 + 1e-6 || K <= 1.0 + 1e-6) {
                nCells = Foam::max(1, label(round(totalLength / cellSizeStart)));
                grading = 1.0;
                return;
            }

            scalar n0 = Foam::max(1.0 + tolerance, K / r);
            scalar n2 = K;

            if (n2 < n0 || ceil(n0) >= floor(n2)) {
                 nCells = Foam::max(1, label(round(totalLength / cellSizeStart)));
                 grading = 1.0;
                 return;
            }

            // Definisci la funzione f(n) interna alla lambda principale
            auto calculateF = [&](scalar n_val) -> scalar {
                if (n_val <= 1.0 + 1e-6) return -K;
                scalar rn = pow(r, n_val / (n_val - 1.0));
                scalar r1 = pow(r, 1.0 / (n_val - 1.0));
                if (Foam::mag(r1 - 1.0) < 1e-9) return -K;
                return (rn - 1.0) / (r1 - 1.0) - K;
            }; // Fine della lambda interna calculateF

            scalar f0 = calculateF(n0);
            scalar n1 = 0.5 * (n0 + n2);
            scalar f1 = calculateF(n1);

            label iter = 0;
            while (Foam::mag(n2 - n0) > tolerance && iter < maxIter) {
                iter++;
                if (f0 * f1 < 0) {
                    n2 = n1;
                } else {
                    n0 = n1;
                    f0 = f1;
                }
                n1 = 0.5 * (n0 + n2);
                f1 = calculateF(n1);
            }

            nCells = Foam::max(1, label(round(n1)));
            grading = (nCells <= 1) ? 1.0 : r;
            // --- Fine del corpo della funzione (lambda) ---
        }; // <-- IMPORTANTE: Punto e virgola alla fine della definizione della lambda!



        // --- Basic Calculations ---
        scalar radAngle = degToRad($degAngle); // 45 deg
        scalar radAngleHalf = degToRad($degAngleHalf); // 22.5 deg
        scalar pi = Foam::constant::mathematical::pi;
        scalar conduit_base_z = -1.0 * ($h_conduit + $h_crater);
        scalar crater_base_z = -1.0 * $h_crater;

        // Radii
        scalar r_cond_base = $r_conduit_base;
        scalar r_cr_base = $r_crater_base;
        scalar r_cr_top = $r_crater_top; // Also radius for Octagon and Inner Circle at z=0+
        scalar r_icyl = $hor_cell_size_top_atm / cos(radAngle); // Intermediate Cylinder radius

        // Corner coordinates cache (based on 45 deg for NE/SE/SW/NW)
        auto getCorners = [&](scalar radius) {
            struct Coords { scalar x, y; };
            return Coords{radius * cos(radAngle), radius * sin(radAngle)};
        };
        auto corners_cond_base = getCorners(r_cond_base);
        auto corners_cr_base = getCorners(r_cr_base);
        auto corners_cr_top = getCorners(r_cr_top);
        auto corners_icyl = getCorners(r_icyl);

        // --- Cell Count Calculations (Keep as before) ---
        // ... (The code for n_mult, n_angle, n_radial, nx/ny_out etc. remains unchanged) ...
        int n_mult = pow(2, $n_vert_layers - 1);
        int n_angle = ceil((r_icyl * cos(radAngle)) / $hor_cell_size_top_atm);
        n_angle = Foam::max(1, n_angle);
        int n_angle_mult = n_angle * n_mult;
        int n_radial = n_angle;
        int n_radial_mult = n_radial * n_mult;
        int n_angle_mult_coarse = Foam::max(1, n_angle_mult / 2);
        int n_radial_mult_coarse = Foam::max(1, n_radial_mult / 2);
        int nx_pos_out = round((mag($atm_x_pos) - corners_icyl.x) / $hor_cell_size_top_atm);
        nx_pos_out = Foam::max(1, nx_pos_out);
        int nx_neg_out = round((mag($atm_x_neg) - corners_icyl.x) / $hor_cell_size_top_atm);
        nx_neg_out = Foam::max(1, nx_neg_out);
        int ny_pos_out = round((mag($atm_y_pos) - corners_icyl.y) / $hor_cell_size_top_atm);
        ny_pos_out = Foam::max(1, ny_pos_out);
        int ny_neg_out = round((mag($atm_y_neg) - corners_icyl.y) / $hor_cell_size_top_atm);
        ny_neg_out = Foam::max(1, ny_neg_out);
        int nx_pos_out_mult = nx_pos_out * n_mult;
        int nx_neg_out_mult = nx_neg_out * n_mult;
        int ny_pos_out_mult = ny_pos_out * n_mult;
        int ny_neg_out_mult = ny_neg_out * n_mult;
        // ... (nz calculations remain the same) ...
        int nz_conduit = 0; 
        if ($h_conduit > 0) 
        { 
            nz_conduit = round(($h_conduit * 8.0 * n_angle_mult_coarse) / (2.0 * pi * r_cond_base));
            nz_conduit = Foam::max(1, nz_conduit);
        }

        // Compute the grading and vertical number of cells in crater
        
        n_radial_mult_coarse = n_radial * pow(2, innerMesh_refinementLevel[0]); // Use coarse counts for crater blocks
        n_angle_mult_coarse = n_angle * pow(2, innerMesh_refinementLevel[0]);
        
        scalar dz_top_crater = $dz_to_dxy_crater_ratio * r_cr_top / ( n_angle_mult_coarse + n_radial_mult_coarse );
        scalar dz_bottom_crater = $dz_to_dxy_crater_ratio * r_cr_base / ( n_angle_mult_coarse + n_radial_mult_coarse );   
        int nz_crater = 1; 
        scalar z_crater_grading = 1.0;
        
        calculateGradingCells($h_crater, dz_bottom_crater, dz_top_crater, nz_crater, z_crater_grading);
        Info << "Calculated nz_crater = " << nz_crater << ", z_crater_grading = " << z_crater_grading << endl;        

        // Compute the grading and vertical number of cells in first layer
        scalar dz_atm_min = dz_top_crater;
        os  << "dz_atm_min " << dz_atm_min << ";" << endl;
        Info  << "dz_atm_min " << dz_atm_min << ";" << endl;

        scalar dz_atm_max = $hor_cell_size_top_atm*$dz_to_dxy_atm_ratio / pow(2,$n_vert_layers-1);
        os  << "dz_atm_max " << dz_atm_max << ";" << endl;
        Info  << "dz_atm_max " << dz_atm_max << ";" << endl;

        scalar dz_bottom_layer($atm_top_z * layer_fraction[1]);
        Info << "dz_bottom_layer " << dz_bottom_layer << endl;

        label nz_out; 
        scalar z_out_grading;
        calculateGradingCells(dz_bottom_layer, dz_atm_min, dz_atm_max, nz_out, z_out_grading);
        Info << "Calculated nz_out = " << nz_out << ", z_out_grading = " << z_out_grading << endl;   

        os  << "nz_out " << nz_out << ";" << endl;
        os  << "z_out_grading " << z_out_grading << ";" << endl;

        scalar dr_min = (r_cr_top - $coeff * 0.5 * corners_cr_top.x) / n_radial; 
        scalar dr_max = $hor_cell_size_top_atm; 
        scalar deltar_cylinder = r_icyl - r_cr_top; int n_radial_grading = 1; 
        scalar radial_grading = 1.0;
        // ... n_radial_grading solver ...
        radial_grading = 1.0; // Keep deactivated for now
        int n_radial_grading_mult = n_radial_grading * n_mult;


        // --- REVISED Vertex Generation (N=0, CCW) ---
        Info << "Revised Vertex Generation (N=0, CCW)" << endl;
        os << "vertices" << endl;
        os << "(" << endl;
        label vertexCount = 0;
        List<vector> points; // Store points

        // Helper function
        auto addVertex = [&](const vector& pt, const string& comment) {
            os << "(" << pt.x() << " " << pt.y() << " " << pt.z() << ") // " << vertexCount << " " << comment << endl;
            // Info << "(" << pt.x() << " " << pt.y() << " " << pt.z() << ") // " << vertexCount << " " << comment << endl;
            points.append(pt);
            vertexCount++;
            return vertexCount - 1; // Return the index
        };

        // Function to generate 8 points on a circle/octagon (N=0, CCW)
        auto makeRing = [&](label& startIdx, scalar r, scalar rCorner, scalar z, scalar dx, scalar dy, const string& prefix, const string& type) {
            startIdx = vertexCount;
            addVertex(vector(dx + 0,       dy + r, z), prefix + " " + type + " N");   // Idx 0
            addVertex(vector(dx - rCorner, dy + rCorner, z), prefix + " " + type + " NW");  // Idx 1
            addVertex(vector(dx - r,       dy + 0,       z), prefix + " " + type + " W");   // Idx 2
            addVertex(vector(dx - rCorner, dy - rCorner, z), prefix + " " + type + " SW");  // Idx 3
            addVertex(vector(dx + 0,       dy - r,       z), prefix + " " + type + " S");   // Idx 4
            addVertex(vector(dx + rCorner, dy - rCorner, z), prefix + " " + type + " SE");  // Idx 5
            addVertex(vector(dx + r,       dy + 0,       z), prefix + " " + type + " E");   // Idx 6
            addVertex(vector(dx + rCorner, dy + rCorner, z), prefix + " " + type + " NE");  // Idx 7
        };

        // --- Storage for Start Indices ---
        // Base Levels
        label L_condBase_center = -1, L_condBase_oct_Start = -1, L_condBase_outer_Start = -1;
        label L_crBase_center = -1,   L_crBase_oct_Start = -1,   L_crBase_outer_Start = -1;

        // Atmospheric Layers (Index 0=unused, 1=z=0 base, 2=topL1/baseL2, ...)
        List<label> L_center_Start($n_vert_layers + 2, -1);
        List<label> L_oct_Start($n_vert_layers + 2, -1);       // Octagon (r=rc_top)
        List<label> L_inr_Start($n_vert_layers + 2, -1);       // Inner Circle (r=rc_top)
        List<label> L_inrDup_Start($n_vert_layers + 2, -1);    // Inner Circle Duplicates (only for L1 top / L2 base)
        List<label> L_icyl_Start($n_vert_layers + 2, -1);      // Intermediate Cylinder (r=cyl_radius)
        List<label> L_far_Start($n_vert_layers + 2, -1);       // Far field

        // Indices of bottom vertices for layers > 1 (vertical duplicates)
        List<label> L_bottom_center_Start($n_vert_layers + 2, -1);
        List<label> L_bottom_oct_Start($n_vert_layers + 2, -1);
        List<label> L_bottom_inr_Start($n_vert_layers + 2, -1);
        List<label> L_bottom_inrDup_Start($n_vert_layers + 2, -1);
        List<label> L_bottom_icyl_Start($n_vert_layers + 2, -1);
        List<label> L_bottom_far_Start($n_vert_layers + 2, -1);

        // --- Conduit Base Vertices (z = conduit_base_z) ---
        if ($h_conduit > 0) {
            scalar z = conduit_base_z;
            scalar dx = $dx_crater_base + $dx_conduit_base;
            scalar dy = $dy_crater_base + $dy_conduit_base;
            L_condBase_center = addVertex(vector(dx, dy, z), "CondBase Ctr");
            makeRing(L_condBase_oct_Start, $coeff*0.5*r_cond_base, 0.5*r_cond_base, z, dx, dy, "CondBase", "Oct");
            makeRing(L_condBase_outer_Start, r_cond_base, r_cond_base* cos(radAngle), z, dx, dy, "CondBase", "Outer"); // Circle points
        }

        // --- Crater Base Vertices (z = crater_base_z) ---
        {
            scalar z = crater_base_z;
            scalar dx = $dx_crater_base;
            scalar dy = $dy_crater_base;
            L_crBase_center = addVertex(vector(dx, dy, z), "CrBase Ctr");
            Info << "vertexCount " << vertexCount << endl;
            makeRing(L_crBase_oct_Start, 0.5*r_cr_base, $coeff*cos(radAngle)*0.5*r_cr_base, z, dx, dy, "CrBase", "Oct");
            Info << "vertexCount " << vertexCount << endl;
            makeRing(L_crBase_outer_Start, r_cr_base, r_cr_base * cos(radAngle), z, dx, dy, "CrBase", "Outer"); // Circle points
            Info << "vertexCount " << vertexCount << endl;
            Info << "crater base indexes " << L_crBase_center << L_crBase_oct_Start << L_crBase_outer_Start << endl;
            
        }

        // --- Loop through atmospheric layers ---
        for (label layer = 1; layer <= $n_vert_layers; ++layer) {
            // Layer Index 'layer' runs 1 to N.
            // Vertex List Index 'layer+1' corresponds to the Bottom of layer 'layer'.
            // Vertex List Index 'layer' corresponds to the BOTTOM of layer 'layer' (except for L1 base at z=0, handled above).

           
            scalar z_level;

            if (layer == 1) {
                z_level = $crater_top_z; // Base of Layer 1 is z=0
            } else {
                // Bottom Z is the Top Z of the previous layer
                z_level = $atm_top_z * layer_fraction[layer-1];
            }

            Info << "bottom level " << z_level << endl;

            scalar r_expansion(z_level * cyl_radial_expansion[layer-1]);
            r_cr_top = $r_crater_top + r_expansion; 
            r_icyl = $hor_cell_size_top_atm / cos(radAngle) + r_expansion;

            scalar dx = 0.0; // Assuming centered
            scalar dy = 0.0;
            label listIdxBottom = layer; // Index in lists for vertices at the Bottom of this layer

            Info << "Generating vertices for Bottom of Layer " << layer << " (z=" << z_level << ", List Index " << listIdxBottom << ")" << endl;

            // --- Generate Bottom vertices for Layer 'layer' ---
            L_bottom_center_Start[listIdxBottom] = addVertex(vector(dx, dy, z_level), "L" + Foam::name(layer) + " Btm Ctr");
            makeRing(L_bottom_oct_Start[listIdxBottom], 0.5*r_cr_top, $coeff*cos(radAngle)*0.5*r_cr_top, z_level, dx, dy, "L" + Foam::name(layer) + " Btm", "Oct");
            makeRing(L_bottom_inr_Start[listIdxBottom], r_cr_top, r_cr_top * cos(radAngle), z_level, dx, dy, "L" + Foam::name(layer) + " Btm", "Inr");

            L_bottom_inrDup_Start[listIdxBottom] = vertexCount; // Duplicates for mergePatchPairs interface at base of L2
            for (label k = 0; k < 8; ++k) addVertex(points[L_bottom_inr_Start[listIdxBottom] + k], "L" + Foam::name(layer) + " BtmInrDup");

            makeRing(L_bottom_icyl_Start[listIdxBottom], r_icyl, r_icyl * cos(radAngle), z_level, dx, dy, "L" + Foam::name(layer) + " Btm", "ICyl");

            // --- Far Field Vertices (Systematic N=0, CCW Indexing) ---
            L_bottom_far_Start[listIdxBottom] = vertexCount; // Or listIdx for z=0
            string prefix = (listIdxBottom == 1) ? "z0" : "L" + Foam::name(layer) + " Btm";

            addVertex(vector(0,              $atm_y_pos, z_level), prefix + " Far N0");          // New Idx 0
            addVertex(vector(-corners_icyl.x, $atm_y_pos, z_level), prefix + " Far N-1");        // New Idx 1
            addVertex(vector($atm_x_neg,      $atm_y_pos, z_level), prefix + " Far NWc");        // New Idx 2
            addVertex(vector($atm_x_neg,       corners_icyl.y, z_level), prefix + " Far W1");    // New Idx 3
            addVertex(vector($atm_x_neg,      0,          z_level), prefix + " Far W0");         // New Idx 4
            addVertex(vector($atm_x_neg,      -corners_icyl.y, z_level), prefix + " Far W-1");   // New Idx 5
            addVertex(vector($atm_x_neg,      $atm_y_neg, z_level), prefix + " Far SWc");        // New Idx 6
            addVertex(vector(-corners_icyl.x, $atm_y_neg, z_level), prefix + " Far S-1");        // New Idx 7
            addVertex(vector(0,              $atm_y_neg, z_level), prefix + " Far S0");          // New Idx 8
            addVertex(vector(corners_icyl.x, $atm_y_neg, z_level), prefix + " Far S1");          // New Idx 9
            addVertex(vector($atm_x_pos,      $atm_y_neg, z_level), prefix + " Far SEc");        // New Idx 10
            addVertex(vector($atm_x_pos,      -corners_icyl.y, z_level), prefix + " Far E-1");   // New Idx 11
            addVertex(vector($atm_x_pos,      0,          z_level), prefix + " Far E0");         // New Idx 12
            addVertex(vector($atm_x_pos,       corners_icyl.y, z_level), prefix + " Far E1");    // New Idx 13
            addVertex(vector($atm_x_pos,      $atm_y_pos, z_level), prefix + " Far NEc");        // New Idx 14
            addVertex(vector(corners_icyl.x, $atm_y_pos, z_level), prefix + " Far N1");          // New Idx 15


            z_level = $atm_top_z * layer_fraction[layer];

            r_expansion = z_level * cyl_radial_expansion[layer];
            r_cr_top = $r_crater_top + r_expansion; 
            r_icyl = $hor_cell_size_top_atm / cos(radAngle) + r_expansion;
                        
            Info << "top level " << z_level << endl;

            label listIdxTop = layer; // Index in lists for vertices at the TOP of this layer

            Info << "Generating vertices for top of Layer " << layer << " (z=" << z_level << ", List Index " << listIdxTop << ")" << endl;

            // --- Generate TOP vertices for Layer 'layer' ---
            L_center_Start[listIdxTop] = addVertex(vector(dx, dy, z_level), "L" + Foam::name(layer) + " Top Ctr");
            makeRing(L_oct_Start[listIdxTop], 0.5*r_cr_top, $coeff*cos(radAngle)*0.5*r_cr_top, z_level, dx, dy, "L" + Foam::name(layer) + " Top", "Oct");
            makeRing(L_inr_Start[listIdxTop], r_cr_top, r_cr_top * cos(radAngle), z_level, dx, dy, "L" + Foam::name(layer) + " Top", "Inr");

            L_inrDup_Start[listIdxTop] = vertexCount; // Duplicates for mergePatchPairs interface at base of L2
            for (label k = 0; k < 8; ++k) addVertex(points[L_inr_Start[listIdxTop] + k], "L" + Foam::name(layer) + " TopInrDup");

            makeRing(L_icyl_Start[listIdxTop], r_icyl, r_icyl * cos(radAngle), z_level, dx, dy, "L" + Foam::name(layer) + " Top", "ICyl");

            // --- Far Field Vertices (Systematic N=0, CCW Indexing) ---
            L_far_Start[listIdxTop] = vertexCount; // Or listIdx for z=0
            prefix = (listIdxTop == 1) ? "z0" : "L" + Foam::name(layer) + " Top";

            addVertex(vector(0,              $atm_y_pos, z_level), prefix + " Far N0");          // New Idx 0
            addVertex(vector(-corners_icyl.x, $atm_y_pos, z_level), prefix + " Far N-1");        // New Idx 1
            addVertex(vector($atm_x_neg,      $atm_y_pos, z_level), prefix + " Far NWc");        // New Idx 2
            addVertex(vector($atm_x_neg,       corners_icyl.y, z_level), prefix + " Far W1");    // New Idx 3
            addVertex(vector($atm_x_neg,      0,          z_level), prefix + " Far W0");         // New Idx 4
            addVertex(vector($atm_x_neg,      -corners_icyl.y, z_level), prefix + " Far W-1");   // New Idx 5
            addVertex(vector($atm_x_neg,      $atm_y_neg, z_level), prefix + " Far SWc");        // New Idx 6
            addVertex(vector(-corners_icyl.x, $atm_y_neg, z_level), prefix + " Far S-1");        // New Idx 7
            addVertex(vector(0,              $atm_y_neg, z_level), prefix + " Far S0");          // New Idx 8
            addVertex(vector(corners_icyl.x, $atm_y_neg, z_level), prefix + " Far S1");          // New Idx 9
            addVertex(vector($atm_x_pos,      $atm_y_neg, z_level), prefix + " Far SEc");        // New Idx 10
            addVertex(vector($atm_x_pos,      -corners_icyl.y, z_level), prefix + " Far E-1");   // New Idx 11
            addVertex(vector($atm_x_pos,      0,          z_level), prefix + " Far E0");         // New Idx 12
            addVertex(vector($atm_x_pos,       corners_icyl.y, z_level), prefix + " Far E1");    // New Idx 13
            addVertex(vector($atm_x_pos,      $atm_y_pos, z_level), prefix + " Far NEc");        // New Idx 14
            addVertex(vector(corners_icyl.x, $atm_y_pos, z_level), prefix + " Far N1");          // New Idx 15

        } // End layer loop

        os << ");" << endl; // End vertices section

        // --- Block, Edge, Boundary, Merge Sections Omitted ---
        // ... These sections need to be generated using the new vertex indices ...


        os << "blocks " << endl;
        os << "(" << endl;

                // Helper to get vertex index (can be defined again locally)
                auto vIdx = [ & ](label groupStart, int offset) {
                    return groupStart + offset;
                };
                
        // --- Crater Blocks (Connect Base:Crater -> Top:z=0) ---
        os << "    // --- Crater Blocks ---" << endl;
        { // Create a scope for crater-specific variables
            label nz = nz_crater;
            scalar grading = z_crater_grading;
            // int nr_c = n_radial_mult_coarse; // Use coarse counts for crater blocks
            // int na_c = n_angle_mult_coarse;

            int nr_c = n_radial * pow(2, innerMesh_refinementLevel[0]); // Use coarse counts for crater blocks
            int na_c = n_angle * pow(2, innerMesh_refinementLevel[0]);

            // Crater Center Blocks (4 blocks) - User Defined Topology
            os << "    // Crater Center Blocks (Base: Crater, Top: z=0)" << endl;
            for (int q = 0; q < 4; ++q) // Loop through NW, SW, SE, NE quadrants
            {
                // Define octagon vertex indices for the quadrant's base face (CCW order)
                // q=0 (NW): Ctr, N(0), NW(1), W(2)
                // q=1 (SW): Ctr, W(2), SW(3), S(4)
                // q=2 (SE): Ctr, S(4), SE(5), E(6)
                // q=3 (NE): Ctr, E(6), NE(7), N(0)
                int oct_idx0 = (q * 2 + 0) % 8;
                int oct_idx1 = (q * 2 + 1) % 8;
                int oct_idx2 = (q * 2 + 2) % 8;

                os << "    hex ("
                   // Base Face (z=crater_base_z) - CCW Winding: Ctr, V0, V1, V2
                   << L_crBase_center             << " " // v0 (Center)
                   << vIdx(L_crBase_oct_Start, oct_idx0) << " " // v1
                   << vIdx(L_crBase_oct_Start, oct_idx1) << " " // v2
                   << vIdx(L_crBase_oct_Start, oct_idx2) << " " // v3
                   // Top Face (z=0) - Corresponding vertices
                   << L_bottom_center_Start[1]           << " " // v4 (Center @ z=0)
                   << vIdx(L_bottom_oct_Start[1], oct_idx0) << " " // v5
                   << vIdx(L_bottom_oct_Start[1], oct_idx1) << " " // v6
                   << vIdx(L_bottom_oct_Start[1], oct_idx2) << ") " // v7
                   // Cell counts (nr, na, nz) - Assuming radial along Oct->Ctr, angular along Oct arc
                   // For center blocks, nr & na might need swapping depending on definition
                   // Let's assume nr is Ctr->Oct, na is along the Oct arc segment for the quadrant
                   << "( " << na_c << " " << na_c << " " << nz << ") simpleGrading (1 1 " << grading << ") // Crater Ctr Quadrant " << q << endl;
            }
            
            // Crater Outer Blocks (8 blocks) - Connecting CrBase(Oct/Outer) to z=0(Oct/Inr)
            os << "    // Crater Outer Blocks (Base: CrOct/CrOuter -> Top: z0Oct/z0Inr)" << endl;
            for (int i = 0; i < 8; ++i) // Loop through the 8 segments (N->NW, NW->W, ...)
            {
                 int i_plus_1 = (i + 1) % 8; // Index of the next vertex CCW

                 os << "    hex ("
                    // Base Face (z=crater_base_z) - CCW Winding: Oct[i], Outer[i], Outer[i+1], Oct[i+1]
                    << vIdx(L_crBase_oct_Start, i)        << " " // v0
                    << vIdx(L_crBase_outer_Start, i)      << " " // v1
                    << vIdx(L_crBase_outer_Start, i_plus_1) << " " // v2
                    << vIdx(L_crBase_oct_Start, i_plus_1)   << " " // v3
                    // Top Face (z=0) - Corresponding vertices: Oct[i], Inr[i], Inr[i+1], Oct[i+1]
                    << vIdx(L_bottom_oct_Start[1], i)            << " " // v4
                    << vIdx(L_bottom_inr_Start[1], i)            << " " // v5
                    << vIdx(L_bottom_inr_Start[1], i_plus_1)     << " " // v6
                    << vIdx(L_bottom_oct_Start[1], i_plus_1)     << ") " // v7
                    // Cell counts (na, nr, nz) - Angular along segment, Radial Oct->Outer/Inr
                    << "( " << na_c << " " << nr_c << " " << nz << ") simpleGrading (1 1 " << grading << ") // Crater Outer Segment " << i << endl;
            }
                       
        } // End Crater Blocks scope

        // --- Atmospheric Layers ---
        for (label layer = 1; layer <= $n_vert_layers; ++layer) {
            os << "    // --- Layer " << layer << " Blocks ---" << endl;

            // --- Determine layer properties ---
            int h_factor = Foam::max(0, layer-1);
            int j = pow(2, h_factor); // Horizontal cell count multiplier

            scalar z_bottom;
            if (layer == 1) {
                z_bottom = $crater_top_z; // Base of Layer 1 is z=0
            } else {
                // Bottom Z is the Top Z of the previous layer
                z_bottom = $atm_top_z * layer_fraction[layer-1];
            }

            scalar z_top = $atm_top_z * layer_fraction[layer];

    
            int n = $n_vert_layers;
            int nz_layer;
            scalar grading_layer;
            if ( layer == 1)
            {
                nz_layer = nz_out;
                grading_layer = z_out_grading;                
            }
            else
            {
                // Compute the grading and vertical number of cells in layer>1
                scalar layer_z = z_top - z_bottom;
                
                dz_atm_min = $hor_cell_size_top_atm / pow(2, $n_vert_layers-layer) * atmCells_aspect_ratio_bottom[layer-2];                
                dz_atm_max = $hor_cell_size_top_atm / pow(2, $n_vert_layers-layer) * atmCells_aspect_ratio_top[layer-2];
                
                calculateGradingCells(layer_z, dz_atm_min, dz_atm_max, nz_layer, grading_layer);
                Info << atmCells_aspect_ratio_bottom[layer-2] << atmCells_aspect_ratio_top[layer-2] << endl;
                Info << " dz_atm_min = " << dz_atm_min << ", dz_atm_max = " << dz_atm_max << endl;
                Info << "Calculated nz_layer = " << nz_layer << ", grading_layer = " << grading_layer << endl; 
            }

            // Get Vertex Start Indices
            label L_btm_center = L_bottom_center_Start[layer]; 
            label L_btm_oct    = L_bottom_oct_Start[layer];    
            label L_btm_inr    = L_bottom_inr_Start[layer];    
            label L_btm_inrDup = L_bottom_inrDup_Start[layer]; // Not used for these blocks
            label L_btm_icyl   = L_bottom_icyl_Start[layer];   
            label L_btm_far    = L_bottom_far_Start[layer];    

            label L_top_center = L_center_Start[layer];
            label L_top_oct    = L_oct_Start[layer];
            label L_top_inr    = L_inr_Start[layer];
            label L_top_inrDup = L_inrDup_Start[layer]; // Not used for these blocks
            label L_top_icyl   = L_icyl_Start[layer];
            label L_top_far    = L_far_Start[layer];
