/*--------------------------------*- C++ -*----------------------------------*\
  =========                 |
  \\      /  F ield         | OpenFOAM: The Open Source CFD Toolbox
   \\    /   O peration     | Website:  https://openfoam.org
    \\  /    A nd           | Version:  9
     \\/     M anipulation  |
\*---------------------------------------------------------------------------*/
FoamFile
{
    format      ascii;
    class       dictionary;
    object      topoSetDict;
}
// * * * * * * * * * * * * * * * * * * * * * * * * * * * * * * * * * * * * * //

actions
(
 {
   name    sphere;
   type    cellSet;
   action  new;
   source surfaceToCell;
        sourceInfo
	  {
            file            "./constant/triSurface/sphere.stl";
            outsidePoints   ((0 0 2000));
            includeCut      true;
            includeInside   true;
            includeOutside  false;
            nearDistance    -5;
            curvature       -100;
	  }
 }
 {
   name    sphere;
   type    cellZoneSet;
   action  new;
   source  setToCellZone;
        sourceInfo
	  {
	    set  sphere;
	  }
 }
    {
        name    sphereShell;
        type    cellSet;
        action  new;
        source surfaceToCell;
        sourceInfo
        {
            file            "./constant/triSurface/surface_in_closed.stl";
            outsidePoints   ((0 0 2000));
            includeCut      true;
            includeInside   true;
            includeOutside  false;
            nearDistance    5;
            curvature       -100;
        }
    }
    {
        name    sphereShell;
        type    cellZoneSet;
        action  new;
        source  setToCellZone;
        sourceInfo
        {
           set  sphereShell;
        }
    }    
    
);

// ************************************************************************* //
