/*--------------------------------*- C++ -*----------------------------------*\
  =========                 |
  \\      /  F ield         | OpenFOAM: The Open Source CFD Toolbox
   \\    /   O peration     | Website:  https://openfoam.org
    \\  /    A nd           | Version:  11
     \\/     M anipulation  |
\*---------------------------------------------------------------------------*/
FoamFile
{
    format      ascii;
    class       dictionary;
    object      blockMeshDict;
}
// * * * * * * * * * * * * * * * * * * * * * * * * * * * * * * * * * * * * * //

convertToMeters 1.0;

vertices
(
    (-1000 -1000 0)
    (1000 -1000 0)
    (1000 1000 0)
    (-1000 1000 0)
    (-1000 -1000 3000)
    (1000 -1000 3000)
    (1000 1000 3000)
    (-1000 1000 3000)
);

blocks
(
    //hex (0 1 2 3 4 5 6 7) (150 150 100) simpleGrading (1 1 6)
    hex (0 1 2 3 4 5 6 7) (30 30 25) simpleGrading (1 1 6)
);

boundary
(
    top
    {
        type patch;
        faces
        (
            (4 5 6 7)        
        );
    }
    ground
    {
        type patch;
        inGroups (terrain);
        faces
        (
            (0 3 2 1)
        );
    }
    sides
    {
        type patch;
        inGroups (atm);
        faces
        (
            (0 4 7 3)
            (2 6 5 1)
            (1 5 4 0)
            (3 7 6 2)
        );
    }
);


// ************************************************************************* //
