/*--------------------------------*- C++ -*----------------------------------*\
  =========                 |
  \\      /  F ield         | OpenFOAM: The Open Source CFD Toolbox
   \\    /   O peration     | Website:  https://openfoam.org
    \\  /    A nd           | Version:  dev
     \\/     M anipulation  |
\*---------------------------------------------------------------------------*/
FoamFile
{
    format      ascii;
    class       dictionary;
    location    "constant";
    object      phaseProperties;
}
// * * * * * * * * * * * * * * * * * * * * * * * * * * * * * * * * * * * * * //

phases (particles1 particles2 air);

continuousPhase air;

particles1
{
    type          purePhaseModel;

    diameterModel constant;
    constantCoeffs
    {
        d               2e-4;
    }

    alphaMax        0.62;
    residualAlpha   1e-8;
}

particles2
{
    type          purePhaseModel;

    diameterModel constant;
    constantCoeffs
    {
        d               2e-3;
    }

    alphaMax        0.62;
    residualAlpha   1e-8;
}

air
{
    type          purePhaseModel;

    diameterModel none;

    residualAlpha   0;
}

blending
{
    default
    {
        type            continuous;
        phase           air;
    }
}

surfaceTension
{}

// ************************************************************************* //
